cases/ieee118/IEEE118.raw
0  100.000
 IEEE 118-bus test system
 generated from MATPOWER data by tools/make_cases.py
      1, 2,    51.000,    27.000,     0.000,     0.000,   1, 0.95500,  10.6700,'BUS-1       ', 138.0000,   1
      2, 1,    20.000,     9.000,     0.000,     0.000,   1, 0.97100,  11.2200,'BUS-2       ', 138.0000,   1
      3, 1,    39.000,    10.000,     0.000,     0.000,   1, 0.96800,  11.5600,'BUS-3       ', 138.0000,   1
      4, 2,    39.000,    12.000,     0.000,     0.000,   1, 0.99800,  15.2800,'BUS-4       ', 138.0000,   1
      5, 1,     0.000,     0.000,     0.000,   -40.000,   1, 1.00200,  15.7300,'BUS-5       ', 138.0000,   1
      6, 2,    52.000,    22.000,     0.000,     0.000,   1, 0.99000,  13.0000,'BUS-6       ', 138.0000,   1
      7, 1,    19.000,     2.000,     0.000,     0.000,   1, 0.98900,  12.5600,'BUS-7       ', 138.0000,   1
      8, 2,    28.000,     0.000,     0.000,     0.000,   1, 1.01500,  20.7700,'BUS-8       ', 345.0000,   1
      9, 1,     0.000,     0.000,     0.000,     0.000,   1, 1.04300,  28.0200,'BUS-9       ', 345.0000,   1
     10, 2,     0.000,     0.000,     0.000,     0.000,   1, 1.05000,  35.6100,'BUS-10      ', 345.0000,   1
     11, 1,    70.000,    23.000,     0.000,     0.000,   1, 0.98500,  12.7200,'BUS-11      ', 138.0000,   1
     12, 2,    47.000,    10.000,     0.000,     0.000,   1, 0.99000,  12.2000,'BUS-12      ', 138.0000,   1
     13, 1,    34.000,    16.000,     0.000,     0.000,   1, 0.96800,  11.3500,'BUS-13      ', 138.0000,   1
     14, 1,    14.000,     1.000,     0.000,     0.000,   1, 0.98400,  11.5000,'BUS-14      ', 138.0000,   1
     15, 2,    90.000,    30.000,     0.000,     0.000,   1, 0.97000,  11.2300,'BUS-15      ', 138.0000,   1
     16, 1,    25.000,    10.000,     0.000,     0.000,   1, 0.98400,  11.9100,'BUS-16      ', 138.0000,   1
     17, 1,    11.000,     3.000,     0.000,     0.000,   1, 0.99500,  13.7400,'BUS-17      ', 138.0000,   1
     18, 2,    60.000,    34.000,     0.000,     0.000,   1, 0.97300,  11.5300,'BUS-18      ', 138.0000,   1
     19, 2,    45.000,    25.000,     0.000,     0.000,   1, 0.96300,  11.0500,'BUS-19      ', 138.0000,   1
     20, 1,    18.000,     3.000,     0.000,     0.000,   1, 0.95800,  11.9300,'BUS-20      ', 138.0000,   1
     21, 1,    14.000,     8.000,     0.000,     0.000,   1, 0.95900,  13.5200,'BUS-21      ', 138.0000,   1
     22, 1,    10.000,     5.000,     0.000,     0.000,   1, 0.97000,  16.0800,'BUS-22      ', 138.0000,   1
     23, 1,     7.000,     3.000,     0.000,     0.000,   1, 1.00000,  21.0000,'BUS-23      ', 138.0000,   1
     24, 2,    13.000,     0.000,     0.000,     0.000,   1, 0.99200,  20.8900,'BUS-24      ', 138.0000,   1
     25, 2,     0.000,     0.000,     0.000,     0.000,   1, 1.05000,  27.9300,'BUS-25      ', 138.0000,   1
     26, 2,     0.000,     0.000,     0.000,     0.000,   1, 1.01500,  29.7100,'BUS-26      ', 345.0000,   1
     27, 2,    71.000,    13.000,     0.000,     0.000,   1, 0.96800,  15.3500,'BUS-27      ', 138.0000,   1
     28, 1,    17.000,     7.000,     0.000,     0.000,   1, 0.96200,  13.6200,'BUS-28      ', 138.0000,   1
     29, 1,    24.000,     4.000,     0.000,     0.000,   1, 0.96300,  12.6300,'BUS-29      ', 138.0000,   1
     30, 1,     0.000,     0.000,     0.000,     0.000,   1, 0.96800,  18.7900,'BUS-30      ', 345.0000,   1
     31, 2,    43.000,    27.000,     0.000,     0.000,   1, 0.96700,  12.7500,'BUS-31      ', 138.0000,   1
     32, 2,    59.000,    23.000,     0.000,     0.000,   1, 0.96400,  14.8000,'BUS-32      ', 138.0000,   1
     33, 1,    23.000,     9.000,     0.000,     0.000,   1, 0.97200,  10.6300,'BUS-33      ', 138.0000,   1
     34, 2,    59.000,    26.000,     0.000,    14.000,   1, 0.98600,  11.3000,'BUS-34      ', 138.0000,   1
     35, 1,    33.000,     9.000,     0.000,     0.000,   1, 0.98100,  10.8700,'BUS-35      ', 138.0000,   1
     36, 2,    31.000,    17.000,     0.000,     0.000,   1, 0.98000,  10.8700,'BUS-36      ', 138.0000,   1
     37, 1,     0.000,     0.000,     0.000,   -25.000,   1, 0.99200,  11.7700,'BUS-37      ', 138.0000,   1
     38, 1,     0.000,     0.000,     0.000,     0.000,   1, 0.96200,  16.9100,'BUS-38      ', 345.0000,   1
     39, 1,    27.000,    11.000,     0.000,     0.000,   1, 0.97000,   8.4100,'BUS-39      ', 138.0000,   1
     40, 2,    66.000,    23.000,     0.000,     0.000,   1, 0.97000,   7.3500,'BUS-40      ', 138.0000,   1
     41, 1,    37.000,    10.000,     0.000,     0.000,   1, 0.96700,   6.9200,'BUS-41      ', 138.0000,   1
     42, 2,    96.000,    23.000,     0.000,     0.000,   1, 0.98500,   8.5300,'BUS-42      ', 138.0000,   1
     43, 1,    18.000,     7.000,     0.000,     0.000,   1, 0.97800,  11.2800,'BUS-43      ', 138.0000,   1
     44, 1,    16.000,     8.000,     0.000,    10.000,   1, 0.98500,  13.8200,'BUS-44      ', 138.0000,   1
     45, 1,    53.000,    22.000,     0.000,    10.000,   1, 0.98700,  15.6700,'BUS-45      ', 138.0000,   1
     46, 2,    28.000,    10.000,     0.000,    10.000,   1, 1.00500,  18.4900,'BUS-46      ', 138.0000,   1
     47, 1,    34.000,     0.000,     0.000,     0.000,   1, 1.01700,  20.7300,'BUS-47      ', 138.0000,   1
     48, 1,    20.000,    11.000,     0.000,    15.000,   1, 1.02100,  19.9300,'BUS-48      ', 138.0000,   1
     49, 2,    87.000,    30.000,     0.000,     0.000,   1, 1.02500,  20.9400,'BUS-49      ', 138.0000,   1
     50, 1,    17.000,     4.000,     0.000,     0.000,   1, 1.00100,  18.9000,'BUS-50      ', 138.0000,   1
     51, 1,    17.000,     8.000,     0.000,     0.000,   1, 0.96700,  16.2800,'BUS-51      ', 138.0000,   1
     52, 1,    18.000,     5.000,     0.000,     0.000,   1, 0.95700,  15.3200,'BUS-52      ', 138.0000,   1
     53, 1,    23.000,    11.000,     0.000,     0.000,   1, 0.94600,  14.3500,'BUS-53      ', 138.0000,   1
     54, 2,   113.000,    32.000,     0.000,     0.000,   1, 0.95500,  15.2600,'BUS-54      ', 138.0000,   1
     55, 2,    63.000,    22.000,     0.000,     0.000,   1, 0.95200,  14.9700,'BUS-55      ', 138.0000,   1
     56, 2,    84.000,    18.000,     0.000,     0.000,   1, 0.95400,  15.1600,'BUS-56      ', 138.0000,   1
     57, 1,    12.000,     3.000,     0.000,     0.000,   1, 0.97100,  16.3600,'BUS-57      ', 138.0000,   1
     58, 1,    12.000,     3.000,     0.000,     0.000,   1, 0.95900,  15.5100,'BUS-58      ', 138.0000,   1
     59, 2,   277.000,   113.000,     0.000,     0.000,   1, 0.98500,  19.3700,'BUS-59      ', 138.0000,   1
     60, 1,    78.000,     3.000,     0.000,     0.000,   1, 0.99300,  23.1500,'BUS-60      ', 138.0000,   1
     61, 2,     0.000,     0.000,     0.000,     0.000,   1, 0.99500,  24.0400,'BUS-61      ', 138.0000,   1
     62, 2,    77.000,    14.000,     0.000,     0.000,   1, 0.99800,  23.4300,'BUS-62      ', 138.0000,   1
     63, 1,     0.000,     0.000,     0.000,     0.000,   1, 0.96900,  22.7500,'BUS-63      ', 345.0000,   1
     64, 1,     0.000,     0.000,     0.000,     0.000,   1, 0.98400,  24.5200,'BUS-64      ', 345.0000,   1
     65, 2,     0.000,     0.000,     0.000,     0.000,   1, 1.00500,  27.6500,'BUS-65      ', 345.0000,   1
     66, 2,    39.000,    18.000,     0.000,     0.000,   1, 1.05000,  27.4800,'BUS-66      ', 138.0000,   1
     67, 1,    28.000,     7.000,     0.000,     0.000,   1, 1.02000,  24.8400,'BUS-67      ', 138.0000,   1
     68, 1,     0.000,     0.000,     0.000,     0.000,   1, 1.00300,  27.5500,'BUS-68      ', 345.0000,   1
     69, 3,     0.000,     0.000,     0.000,     0.000,   1, 1.03500,  30.0000,'BUS-69      ', 138.0000,   1
     70, 2,    66.000,    20.000,     0.000,     0.000,   1, 0.98400,  22.5800,'BUS-70      ', 138.0000,   1
     71, 1,     0.000,     0.000,     0.000,     0.000,   1, 0.98700,  22.1500,'BUS-71      ', 138.0000,   1
     72, 2,    12.000,     0.000,     0.000,     0.000,   1, 0.98000,  20.9800,'BUS-72      ', 138.0000,   1
     73, 2,     6.000,     0.000,     0.000,     0.000,   1, 0.99100,  21.9400,'BUS-73      ', 138.0000,   1
     74, 2,    68.000,    27.000,     0.000,    12.000,   1, 0.95800,  21.6400,'BUS-74      ', 138.0000,   1
     75, 1,    47.000,    11.000,     0.000,     0.000,   1, 0.96700,  22.9100,'BUS-75      ', 138.0000,   1
     76, 2,    68.000,    36.000,     0.000,     0.000,   1, 0.94300,  21.7700,'BUS-76      ', 138.0000,   1
     77, 2,    61.000,    28.000,     0.000,     0.000,   1, 1.00600,  26.7200,'BUS-77      ', 138.0000,   1
     78, 1,    71.000,    26.000,     0.000,     0.000,   1, 1.00300,  26.4200,'BUS-78      ', 138.0000,   1
     79, 1,    39.000,    32.000,     0.000,    20.000,   1, 1.00900,  26.7200,'BUS-79      ', 138.0000,   1
     80, 2,   130.000,    26.000,     0.000,     0.000,   1, 1.04000,  28.9600,'BUS-80      ', 138.0000,   1
     81, 1,     0.000,     0.000,     0.000,     0.000,   1, 0.99700,  28.1000,'BUS-81      ', 345.0000,   1
     82, 1,    54.000,    27.000,     0.000,    20.000,   1, 0.98900,  27.2400,'BUS-82      ', 138.0000,   1
     83, 1,    20.000,    10.000,     0.000,    10.000,   1, 0.98500,  28.4200,'BUS-83      ', 138.0000,   1
     84, 1,    11.000,     7.000,     0.000,     0.000,   1, 0.98000,  30.9500,'BUS-84      ', 138.0000,   1
     85, 2,    24.000,    15.000,     0.000,     0.000,   1, 0.98500,  32.5100,'BUS-85      ', 138.0000,   1
     86, 1,    21.000,    10.000,     0.000,     0.000,   1, 0.98700,  31.1400,'BUS-86      ', 138.0000,   1
     87, 2,     0.000,     0.000,     0.000,     0.000,   1, 1.01500,  31.4000,'BUS-87      ', 161.0000,   1
     88, 1,    48.000,    10.000,     0.000,     0.000,   1, 0.98700,  35.6400,'BUS-88      ', 138.0000,   1
     89, 2,     0.000,     0.000,     0.000,     0.000,   1, 1.00500,  39.6900,'BUS-89      ', 138.0000,   1
     90, 2,   163.000,    42.000,     0.000,     0.000,   1, 0.98500,  33.2900,'BUS-90      ', 138.0000,   1
     91, 2,    10.000,     0.000,     0.000,     0.000,   1, 0.98000,  33.3100,'BUS-91      ', 138.0000,   1
     92, 2,    65.000,    10.000,     0.000,     0.000,   1, 0.99300,  33.8000,'BUS-92      ', 138.0000,   1
     93, 1,    12.000,     7.000,     0.000,     0.000,   1, 0.98700,  30.7900,'BUS-93      ', 138.0000,   1
     94, 1,    30.000,    16.000,     0.000,     0.000,   1, 0.99100,  28.6400,'BUS-94      ', 138.0000,   1
     95, 1,    42.000,    31.000,     0.000,     0.000,   1, 0.98100,  27.6700,'BUS-95      ', 138.0000,   1
     96, 1,    38.000,    15.000,     0.000,     0.000,   1, 0.99300,  27.5100,'BUS-96      ', 138.0000,   1
     97, 1,    15.000,     9.000,     0.000,     0.000,   1, 1.01100,  27.8800,'BUS-97      ', 138.0000,   1
     98, 1,    34.000,     8.000,     0.000,     0.000,   1, 1.02400,  27.4000,'BUS-98      ', 138.0000,   1
     99, 2,    42.000,     0.000,     0.000,     0.000,   1, 1.01000,  27.0400,'BUS-99      ', 138.0000,   1
    100, 2,    37.000,    18.000,     0.000,     0.000,   1, 1.01700,  28.0300,'BUS-100     ', 138.0000,   1
    101, 1,    22.000,    15.000,     0.000,     0.000,   1, 0.99300,  29.6100,'BUS-101     ', 138.0000,   1
    102, 1,     5.000,     3.000,     0.000,     0.000,   1, 0.99100,  32.3000,'BUS-102     ', 138.0000,   1
    103, 2,    23.000,    16.000,     0.000,     0.000,   1, 1.00100,  24.4400,'BUS-103     ', 138.0000,   1
    104, 2,    38.000,    25.000,     0.000,     0.000,   1, 0.97100,  21.6900,'BUS-104     ', 138.0000,   1
    105, 2,    31.000,    26.000,     0.000,    20.000,   1, 0.96500,  20.5700,'BUS-105     ', 138.0000,   1
    106, 1,    43.000,    16.000,     0.000,     0.000,   1, 0.96200,  20.3200,'BUS-106     ', 138.0000,   1
    107, 2,    50.000,    12.000,     0.000,     6.000,   1, 0.95200,  17.5300,'BUS-107     ', 138.0000,   1
    108, 1,     2.000,     1.000,     0.000,     0.000,   1, 0.96700,  19.3800,'BUS-108     ', 138.0000,   1
    109, 1,     8.000,     3.000,     0.000,     0.000,   1, 0.96700,  18.9300,'BUS-109     ', 138.0000,   1
    110, 2,    39.000,    30.000,     0.000,     6.000,   1, 0.97300,  18.0900,'BUS-110     ', 138.0000,   1
    111, 2,     0.000,     0.000,     0.000,     0.000,   1, 0.98000,  19.7400,'BUS-111     ', 138.0000,   1
    112, 2,    68.000,    13.000,     0.000,     0.000,   1, 0.97500,  14.9900,'BUS-112     ', 138.0000,   1
    113, 2,     6.000,     0.000,     0.000,     0.000,   1, 0.99300,  13.7400,'BUS-113     ', 138.0000,   1
    114, 1,     8.000,     3.000,     0.000,     0.000,   1, 0.96000,  14.4600,'BUS-114     ', 138.0000,   1
    115, 1,    22.000,     7.000,     0.000,     0.000,   1, 0.96000,  14.4600,'BUS-115     ', 138.0000,   1
    116, 2,   184.000,     0.000,     0.000,     0.000,   1, 1.00500,  27.1200,'BUS-116     ', 138.0000,   1
    117, 1,    20.000,     8.000,     0.000,     0.000,   1, 0.97400,  10.6700,'BUS-117     ', 138.0000,   1
    118, 1,    33.000,    15.000,     0.000,     0.000,   1, 0.94900,  21.9200,'BUS-118     ', 138.0000,   1
0 / END OF BUS DATA, BEGIN GENERATOR DATA
      1,'1 ',     0.000,     0.000,    15.000,    -5.000, 0.95500,     0,   100.000,   0.00000,   1.00000,   0.00000,   0.00000,   1.00000,1,  100.0,   100.000,     0.000
      4,'1 ',     0.000,     0.000,   300.000,  -300.000, 0.99800,     0,   100.000,   0.00000,   1.00000,   0.00000,   0.00000,   1.00000,1,  100.0,   100.000,     0.000
      6,'1 ',     0.000,     0.000,    50.000,   -13.000, 0.99000,     0,   100.000,   0.00000,   1.00000,   0.00000,   0.00000,   1.00000,1,  100.0,   100.000,     0.000
      8,'1 ',     0.000,     0.000,   300.000,  -300.000, 1.01500,     0,   100.000,   0.00000,   1.00000,   0.00000,   0.00000,   1.00000,1,  100.0,   100.000,     0.000
     10,'1 ',   450.000,     0.000,   200.000,  -147.000, 1.05000,     0,   100.000,   0.00000,   1.00000,   0.00000,   0.00000,   1.00000,1,  100.0,   550.000,     0.000
     12,'1 ',    85.000,     0.000,   120.000,   -35.000, 0.99000,     0,   100.000,   0.00000,   1.00000,   0.00000,   0.00000,   1.00000,1,  100.0,   185.000,     0.000
     15,'1 ',     0.000,     0.000,    30.000,   -10.000, 0.97000,     0,   100.000,   0.00000,   1.00000,   0.00000,   0.00000,   1.00000,1,  100.0,   100.000,     0.000
     18,'1 ',     0.000,     0.000,    50.000,   -16.000, 0.97300,     0,   100.000,   0.00000,   1.00000,   0.00000,   0.00000,   1.00000,1,  100.0,   100.000,     0.000
     19,'1 ',     0.000,     0.000,    24.000,    -8.000, 0.96200,     0,   100.000,   0.00000,   1.00000,   0.00000,   0.00000,   1.00000,1,  100.0,   100.000,     0.000
     24,'1 ',     0.000,     0.000,   300.000,  -300.000, 0.99200,     0,   100.000,   0.00000,   1.00000,   0.00000,   0.00000,   1.00000,1,  100.0,   100.000,     0.000
     25,'1 ',   220.000,     0.000,   140.000,   -47.000, 1.05000,     0,   100.000,   0.00000,   1.00000,   0.00000,   0.00000,   1.00000,1,  100.0,   320.000,     0.000
     26,'1 ',   314.000,     0.000,  1000.000, -1000.000, 1.01500,     0,   100.000,   0.00000,   1.00000,   0.00000,   0.00000,   1.00000,1,  100.0,   414.000,     0.000
     27,'1 ',     0.000,     0.000,   300.000,  -300.000, 0.96800,     0,   100.000,   0.00000,   1.00000,   0.00000,   0.00000,   1.00000,1,  100.0,   100.000,     0.000
     31,'1 ',     7.000,     0.000,   300.000,  -300.000, 0.96700,     0,   100.000,   0.00000,   1.00000,   0.00000,   0.00000,   1.00000,1,  100.0,   107.000,     0.000
     32,'1 ',     0.000,     0.000,    42.000,   -14.000, 0.96300,     0,   100.000,   0.00000,   1.00000,   0.00000,   0.00000,   1.00000,1,  100.0,   100.000,     0.000
     34,'1 ',     0.000,     0.000,    24.000,    -8.000, 0.98400,     0,   100.000,   0.00000,   1.00000,   0.00000,   0.00000,   1.00000,1,  100.0,   100.000,     0.000
     36,'1 ',     0.000,     0.000,    24.000,    -8.000, 0.98000,     0,   100.000,   0.00000,   1.00000,   0.00000,   0.00000,   1.00000,1,  100.0,   100.000,     0.000
     40,'1 ',     0.000,     0.000,   300.000,  -300.000, 0.97000,     0,   100.000,   0.00000,   1.00000,   0.00000,   0.00000,   1.00000,1,  100.0,   100.000,     0.000
     42,'1 ',     0.000,     0.000,   300.000,  -300.000, 0.98500,     0,   100.000,   0.00000,   1.00000,   0.00000,   0.00000,   1.00000,1,  100.0,   100.000,     0.000
     46,'1 ',    19.000,     0.000,   100.000,  -100.000, 1.00500,     0,   100.000,   0.00000,   1.00000,   0.00000,   0.00000,   1.00000,1,  100.0,   119.000,     0.000
     49,'1 ',   204.000,     0.000,   210.000,   -85.000, 1.02500,     0,   100.000,   0.00000,   1.00000,   0.00000,   0.00000,   1.00000,1,  100.0,   304.000,     0.000
     54,'1 ',    48.000,     0.000,   300.000,  -300.000, 0.95500,     0,   100.000,   0.00000,   1.00000,   0.00000,   0.00000,   1.00000,1,  100.0,   148.000,     0.000
     55,'1 ',     0.000,     0.000,    23.000,    -8.000, 0.95200,     0,   100.000,   0.00000,   1.00000,   0.00000,   0.00000,   1.00000,1,  100.0,   100.000,     0.000
     56,'1 ',     0.000,     0.000,    15.000,    -8.000, 0.95400,     0,   100.000,   0.00000,   1.00000,   0.00000,   0.00000,   1.00000,1,  100.0,   100.000,     0.000
     59,'1 ',   155.000,     0.000,   180.000,   -60.000, 0.98500,     0,   100.000,   0.00000,   1.00000,   0.00000,   0.00000,   1.00000,1,  100.0,   255.000,     0.000
     61,'1 ',   160.000,     0.000,   300.000,  -100.000, 0.99500,     0,   100.000,   0.00000,   1.00000,   0.00000,   0.00000,   1.00000,1,  100.0,   260.000,     0.000
     62,'1 ',     0.000,     0.000,    20.000,   -20.000, 0.99800,     0,   100.000,   0.00000,   1.00000,   0.00000,   0.00000,   1.00000,1,  100.0,   100.000,     0.000
     65,'1 ',   391.000,     0.000,   200.000,   -67.000, 1.00500,     0,   100.000,   0.00000,   1.00000,   0.00000,   0.00000,   1.00000,1,  100.0,   491.000,     0.000
     66,'1 ',   392.000,     0.000,   200.000,   -67.000, 1.05000,     0,   100.000,   0.00000,   1.00000,   0.00000,   0.00000,   1.00000,1,  100.0,   492.000,     0.000
     69,'1 ',   516.400,     0.000,   300.000,  -300.000, 1.03500,     0,   100.000,   0.00000,   1.00000,   0.00000,   0.00000,   1.00000,1,  100.0,   805.200,     0.000
     70,'1 ',     0.000,     0.000,    32.000,   -10.000, 0.98400,     0,   100.000,   0.00000,   1.00000,   0.00000,   0.00000,   1.00000,1,  100.0,   100.000,     0.000
     72,'1 ',     0.000,     0.000,   100.000,  -100.000, 0.98000,     0,   100.000,   0.00000,   1.00000,   0.00000,   0.00000,   1.00000,1,  100.0,   100.000,     0.000
     73,'1 ',     0.000,     0.000,   100.000,  -100.000, 0.99100,     0,   100.000,   0.00000,   1.00000,   0.00000,   0.00000,   1.00000,1,  100.0,   100.000,     0.000
     74,'1 ',     0.000,     0.000,     9.000,    -6.000, 0.95800,     0,   100.000,   0.00000,   1.00000,   0.00000,   0.00000,   1.00000,1,  100.0,   100.000,     0.000
     76,'1 ',     0.000,     0.000,    23.000,    -8.000, 0.94300,     0,   100.000,   0.00000,   1.00000,   0.00000,   0.00000,   1.00000,1,  100.0,   100.000,     0.000
     77,'1 ',     0.000,     0.000,    70.000,   -20.000, 1.00600,     0,   100.000,   0.00000,   1.00000,   0.00000,   0.00000,   1.00000,1,  100.0,   100.000,     0.000
     80,'1 ',   477.000,     0.000,   280.000,  -165.000, 1.04000,     0,   100.000,   0.00000,   1.00000,   0.00000,   0.00000,   1.00000,1,  100.0,   577.000,     0.000
     85,'1 ',     0.000,     0.000,    23.000,    -8.000, 0.98500,     0,   100.000,   0.00000,   1.00000,   0.00000,   0.00000,   1.00000,1,  100.0,   100.000,     0.000
     87,'1 ',     4.000,     0.000,  1000.000,  -100.000, 1.01500,     0,   100.000,   0.00000,   1.00000,   0.00000,   0.00000,   1.00000,1,  100.0,   104.000,     0.000
     89,'1 ',   607.000,     0.000,   300.000,  -210.000, 1.00500,     0,   100.000,   0.00000,   1.00000,   0.00000,   0.00000,   1.00000,1,  100.0,   707.000,     0.000
     90,'1 ',     0.000,     0.000,   300.000,  -300.000, 0.98500,     0,   100.000,   0.00000,   1.00000,   0.00000,   0.00000,   1.00000,1,  100.0,   100.000,     0.000
     91,'1 ',     0.000,     0.000,   100.000,  -100.000, 0.98000,     0,   100.000,   0.00000,   1.00000,   0.00000,   0.00000,   1.00000,1,  100.0,   100.000,     0.000
     92,'1 ',     0.000,     0.000,     9.000,    -3.000, 0.99000,     0,   100.000,   0.00000,   1.00000,   0.00000,   0.00000,   1.00000,1,  100.0,   100.000,     0.000
     99,'1 ',     0.000,     0.000,   100.000,  -100.000, 1.01000,     0,   100.000,   0.00000,   1.00000,   0.00000,   0.00000,   1.00000,1,  100.0,   100.000,     0.000
    100,'1 ',   252.000,     0.000,   155.000,   -50.000, 1.01700,     0,   100.000,   0.00000,   1.00000,   0.00000,   0.00000,   1.00000,1,  100.0,   352.000,     0.000
    103,'1 ',    40.000,     0.000,    40.000,   -15.000, 1.01000,     0,   100.000,   0.00000,   1.00000,   0.00000,   0.00000,   1.00000,1,  100.0,   140.000,     0.000
    104,'1 ',     0.000,     0.000,    23.000,    -8.000, 0.97100,     0,   100.000,   0.00000,   1.00000,   0.00000,   0.00000,   1.00000,1,  100.0,   100.000,     0.000
    105,'1 ',     0.000,     0.000,    23.000,    -8.000, 0.96500,     0,   100.000,   0.00000,   1.00000,   0.00000,   0.00000,   1.00000,1,  100.0,   100.000,     0.000
    107,'1 ',     0.000,     0.000,   200.000,  -200.000, 0.95200,     0,   100.000,   0.00000,   1.00000,   0.00000,   0.00000,   1.00000,1,  100.0,   100.000,     0.000
    110,'1 ',     0.000,     0.000,    23.000,    -8.000, 0.97300,     0,   100.000,   0.00000,   1.00000,   0.00000,   0.00000,   1.00000,1,  100.0,   100.000,     0.000
    111,'1 ',    36.000,     0.000,  1000.000,  -100.000, 0.98000,     0,   100.000,   0.00000,   1.00000,   0.00000,   0.00000,   1.00000,1,  100.0,   136.000,     0.000
    112,'1 ',     0.000,     0.000,  1000.000,  -100.000, 0.97500,     0,   100.000,   0.00000,   1.00000,   0.00000,   0.00000,   1.00000,1,  100.0,   100.000,     0.000
    113,'1 ',     0.000,     0.000,   200.000,  -100.000, 0.99300,     0,   100.000,   0.00000,   1.00000,   0.00000,   0.00000,   1.00000,1,  100.0,   100.000,     0.000
    116,'1 ',     0.000,     0.000,  1000.000, -1000.000, 1.00500,     0,   100.000,   0.00000,   1.00000,   0.00000,   0.00000,   1.00000,1,  100.0,   100.000,     0.000
0 / END OF GENERATOR DATA, BEGIN BRANCH DATA
      1,      2,'1 ',   0.03030,   0.09990,   0.02540,  9900.00,     0.00,     0.00, 0.00000,   0.000, 0.00000, 0.00000, 0.00000, 0.00000,1
      1,      3,'1 ',   0.01290,   0.04240,   0.01082,  9900.00,     0.00,     0.00, 0.00000,   0.000, 0.00000, 0.00000, 0.00000, 0.00000,1
      4,      5,'1 ',   0.00176,   0.00798,   0.00210,  9900.00,     0.00,     0.00, 0.00000,   0.000, 0.00000, 0.00000, 0.00000, 0.00000,1
      3,      5,'1 ',   0.02410,   0.10800,   0.02840,  9900.00,     0.00,     0.00, 0.00000,   0.000, 0.00000, 0.00000, 0.00000, 0.00000,1
      5,      6,'1 ',   0.01190,   0.05400,   0.01426,  9900.00,     0.00,     0.00, 0.00000,   0.000, 0.00000, 0.00000, 0.00000, 0.00000,1
      6,      7,'1 ',   0.00459,   0.02080,   0.00550,  9900.00,     0.00,     0.00, 0.00000,   0.000, 0.00000, 0.00000, 0.00000, 0.00000,1
      8,      9,'1 ',   0.00244,   0.03050,   1.16200,  9900.00,     0.00,     0.00, 0.00000,   0.000, 0.00000, 0.00000, 0.00000, 0.00000,1
      8,      5,'1 ',   0.00000,   0.02670,   0.00000,  9900.00,     0.00,     0.00, 0.98500,   0.000, 0.00000, 0.00000, 0.00000, 0.00000,1
      9,     10,'1 ',   0.00258,   0.03220,   1.23000,  9900.00,     0.00,     0.00, 0.00000,   0.000, 0.00000, 0.00000, 0.00000, 0.00000,1
      4,     11,'1 ',   0.02090,   0.06880,   0.01748,  9900.00,     0.00,     0.00, 0.00000,   0.000, 0.00000, 0.00000, 0.00000, 0.00000,1
      5,     11,'1 ',   0.02030,   0.06820,   0.01738,  9900.00,     0.00,     0.00, 0.00000,   0.000, 0.00000, 0.00000, 0.00000, 0.00000,1
     11,     12,'1 ',   0.00595,   0.01960,   0.00502,  9900.00,     0.00,     0.00, 0.00000,   0.000, 0.00000, 0.00000, 0.00000, 0.00000,1
      2,     12,'1 ',   0.01870,   0.06160,   0.01572,  9900.00,     0.00,     0.00, 0.00000,   0.000, 0.00000, 0.00000, 0.00000, 0.00000,1
      3,     12,'1 ',   0.04840,   0.16000,   0.04060,  9900.00,     0.00,     0.00, 0.00000,   0.000, 0.00000, 0.00000, 0.00000, 0.00000,1
      7,     12,'1 ',   0.00862,   0.03400,   0.00874,  9900.00,     0.00,     0.00, 0.00000,   0.000, 0.00000, 0.00000, 0.00000, 0.00000,1
     11,     13,'1 ',   0.02225,   0.07310,   0.01876,  9900.00,     0.00,     0.00, 0.00000,   0.000, 0.00000, 0.00000, 0.00000, 0.00000,1
     12,     14,'1 ',   0.02150,   0.07070,   0.01816,  9900.00,     0.00,     0.00, 0.00000,   0.000, 0.00000, 0.00000, 0.00000, 0.00000,1
     13,     15,'1 ',   0.07440,   0.24440,   0.06268,  9900.00,     0.00,     0.00, 0.00000,   0.000, 0.00000, 0.00000, 0.00000, 0.00000,1
     14,     15,'1 ',   0.05950,   0.19500,   0.05020,  9900.00,     0.00,     0.00, 0.00000,   0.000, 0.00000, 0.00000, 0.00000, 0.00000,1
     12,     16,'1 ',   0.02120,   0.08340,   0.02140,  9900.00,     0.00,     0.00, 0.00000,   0.000, 0.00000, 0.00000, 0.00000, 0.00000,1
     15,     17,'1 ',   0.01320,   0.04370,   0.04440,  9900.00,     0.00,     0.00, 0.00000,   0.000, 0.00000, 0.00000, 0.00000, 0.00000,1
     16,     17,'1 ',   0.04540,   0.18010,   0.04660,  9900.00,     0.00,     0.00, 0.00000,   0.000, 0.00000, 0.00000, 0.00000, 0.00000,1
     17,     18,'1 ',   0.01230,   0.05050,   0.01298,  9900.00,     0.00,     0.00, 0.00000,   0.000, 0.00000, 0.00000, 0.00000, 0.00000,1
     18,     19,'1 ',   0.01119,   0.04930,   0.01142,  9900.00,     0.00,     0.00, 0.00000,   0.000, 0.00000, 0.00000, 0.00000, 0.00000,1
     19,     20,'1 ',   0.02520,   0.11700,   0.02980,  9900.00,     0.00,     0.00, 0.00000,   0.000, 0.00000, 0.00000, 0.00000, 0.00000,1
     15,     19,'1 ',   0.01200,   0.03940,   0.01010,  9900.00,     0.00,     0.00, 0.00000,   0.000, 0.00000, 0.00000, 0.00000, 0.00000,1
     20,     21,'1 ',   0.01830,   0.08490,   0.02160,  9900.00,     0.00,     0.00, 0.00000,   0.000, 0.00000, 0.00000, 0.00000, 0.00000,1
     21,     22,'1 ',   0.02090,   0.09700,   0.02460,  9900.00,     0.00,     0.00, 0.00000,   0.000, 0.00000, 0.00000, 0.00000, 0.00000,1
     22,     23,'1 ',   0.03420,   0.15900,   0.04040,  9900.00,     0.00,     0.00, 0.00000,   0.000, 0.00000, 0.00000, 0.00000, 0.00000,1
     23,     24,'1 ',   0.01350,   0.04920,   0.04980,  9900.00,     0.00,     0.00, 0.00000,   0.000, 0.00000, 0.00000, 0.00000, 0.00000,1
     23,     25,'1 ',   0.01560,   0.08000,   0.08640,  9900.00,     0.00,     0.00, 0.00000,   0.000, 0.00000, 0.00000, 0.00000, 0.00000,1
     26,     25,'1 ',   0.00000,   0.03820,   0.00000,  9900.00,     0.00,     0.00, 0.96000,   0.000, 0.00000, 0.00000, 0.00000, 0.00000,1
     25,     27,'1 ',   0.03180,   0.16300,   0.17640,  9900.00,     0.00,     0.00, 0.00000,   0.000, 0.00000, 0.00000, 0.00000, 0.00000,1
     27,     28,'1 ',   0.01913,   0.08550,   0.02160,  9900.00,     0.00,     0.00, 0.00000,   0.000, 0.00000, 0.00000, 0.00000, 0.00000,1
     28,     29,'1 ',   0.02370,   0.09430,   0.02380,  9900.00,     0.00,     0.00, 0.00000,   0.000, 0.00000, 0.00000, 0.00000, 0.00000,1
     30,     17,'1 ',   0.00000,   0.03880,   0.00000,  9900.00,     0.00,     0.00, 0.96000,   0.000, 0.00000, 0.00000, 0.00000, 0.00000,1
      8,     30,'1 ',   0.00431,   0.05040,   0.51400,  9900.00,     0.00,     0.00, 0.00000,   0.000, 0.00000, 0.00000, 0.00000, 0.00000,1
     26,     30,'1 ',   0.00799,   0.08600,   0.90800,  9900.00,     0.00,     0.00, 0.00000,   0.000, 0.00000, 0.00000, 0.00000, 0.00000,1
     17,     31,'1 ',   0.04740,   0.15630,   0.03990,  9900.00,     0.00,     0.00, 0.00000,   0.000, 0.00000, 0.00000, 0.00000, 0.00000,1
     29,     31,'1 ',   0.01080,   0.03310,   0.00830,  9900.00,     0.00,     0.00, 0.00000,   0.000, 0.00000, 0.00000, 0.00000, 0.00000,1
     23,     32,'1 ',   0.03170,   0.11530,   0.11730,  9900.00,     0.00,     0.00, 0.00000,   0.000, 0.00000, 0.00000, 0.00000, 0.00000,1
     31,     32,'1 ',   0.02980,   0.09850,   0.02510,  9900.00,     0.00,     0.00, 0.00000,   0.000, 0.00000, 0.00000, 0.00000, 0.00000,1
     27,     32,'1 ',   0.02290,   0.07550,   0.01926,  9900.00,     0.00,     0.00, 0.00000,   0.000, 0.00000, 0.00000, 0.00000, 0.00000,1
     15,     33,'1 ',   0.03800,   0.12440,   0.03194,  9900.00,     0.00,     0.00, 0.00000,   0.000, 0.00000, 0.00000, 0.00000, 0.00000,1
     19,     34,'1 ',   0.07520,   0.24700,   0.06320,  9900.00,     0.00,     0.00, 0.00000,   0.000, 0.00000, 0.00000, 0.00000, 0.00000,1
     35,     36,'1 ',   0.00224,   0.01020,   0.00268,  9900.00,     0.00,     0.00, 0.00000,   0.000, 0.00000, 0.00000, 0.00000, 0.00000,1
     35,     37,'1 ',   0.01100,   0.04970,   0.01318,  9900.00,     0.00,     0.00, 0.00000,   0.000, 0.00000, 0.00000, 0.00000, 0.00000,1
     33,     37,'1 ',   0.04150,   0.14200,   0.03660,  9900.00,     0.00,     0.00, 0.00000,   0.000, 0.00000, 0.00000, 0.00000, 0.00000,1
     34,     36,'1 ',   0.00871,   0.02680,   0.00568,  9900.00,     0.00,     0.00, 0.00000,   0.000, 0.00000, 0.00000, 0.00000, 0.00000,1
     34,     37,'1 ',   0.00256,   0.00940,   0.00984,  9900.00,     0.00,     0.00, 0.00000,   0.000, 0.00000, 0.00000, 0.00000, 0.00000,1
     38,     37,'1 ',   0.00000,   0.03750,   0.00000,  9900.00,     0.00,     0.00, 0.93500,   0.000, 0.00000, 0.00000, 0.00000, 0.00000,1
     37,     39,'1 ',   0.03210,   0.10600,   0.02700,  9900.00,     0.00,     0.00, 0.00000,   0.000, 0.00000, 0.00000, 0.00000, 0.00000,1
     37,     40,'1 ',   0.05930,   0.16800,   0.04200,  9900.00,     0.00,     0.00, 0.00000,   0.000, 0.00000, 0.00000, 0.00000, 0.00000,1
     30,     38,'1 ',   0.00464,   0.05400,   0.42200,  9900.00,     0.00,     0.00, 0.00000,   0.000, 0.00000, 0.00000, 0.00000, 0.00000,1
     39,     40,'1 ',   0.01840,   0.06050,   0.01552,  9900.00,     0.00,     0.00, 0.00000,   0.000, 0.00000, 0.00000, 0.00000, 0.00000,1
     40,     41,'1 ',   0.01450,   0.04870,   0.01222,  9900.00,     0.00,     0.00, 0.00000,   0.000, 0.00000, 0.00000, 0.00000, 0.00000,1
     40,     42,'1 ',   0.05550,   0.18300,   0.04660,  9900.00,     0.00,     0.00, 0.00000,   0.000, 0.00000, 0.00000, 0.00000, 0.00000,1
     41,     42,'1 ',   0.04100,   0.13500,   0.03440,  9900.00,     0.00,     0.00, 0.00000,   0.000, 0.00000, 0.00000, 0.00000, 0.00000,1
     43,     44,'1 ',   0.06080,   0.24540,   0.06068,  9900.00,     0.00,     0.00, 0.00000,   0.000, 0.00000, 0.00000, 0.00000, 0.00000,1
     34,     43,'1 ',   0.04130,   0.16810,   0.04226,  9900.00,     0.00,     0.00, 0.00000,   0.000, 0.00000, 0.00000, 0.00000, 0.00000,1
     44,     45,'1 ',   0.02240,   0.09010,   0.02240,  9900.00,     0.00,     0.00, 0.00000,   0.000, 0.00000, 0.00000, 0.00000, 0.00000,1
     45,     46,'1 ',   0.04000,   0.13560,   0.03320,  9900.00,     0.00,     0.00, 0.00000,   0.000, 0.00000, 0.00000, 0.00000, 0.00000,1
     46,     47,'1 ',   0.03800,   0.12700,   0.03160,  9900.00,     0.00,     0.00, 0.00000,   0.000, 0.00000, 0.00000, 0.00000, 0.00000,1
     46,     48,'1 ',   0.06010,   0.18900,   0.04720,  9900.00,     0.00,     0.00, 0.00000,   0.000, 0.00000, 0.00000, 0.00000, 0.00000,1
     47,     49,'1 ',   0.01910,   0.06250,   0.01604,  9900.00,     0.00,     0.00, 0.00000,   0.000, 0.00000, 0.00000, 0.00000, 0.00000,1
     42,     49,'1 ',   0.07150,   0.32300,   0.08600,  9900.00,     0.00,     0.00, 0.00000,   0.000, 0.00000, 0.00000, 0.00000, 0.00000,1
     42,     49,'2 ',   0.07150,   0.32300,   0.08600,  9900.00,     0.00,     0.00, 0.00000,   0.000, 0.00000, 0.00000, 0.00000, 0.00000,1
     45,     49,'1 ',   0.06840,   0.18600,   0.04440,  9900.00,     0.00,     0.00, 0.00000,   0.000, 0.00000, 0.00000, 0.00000, 0.00000,1
     48,     49,'1 ',   0.01790,   0.05050,   0.01258,  9900.00,     0.00,     0.00, 0.00000,   0.000, 0.00000, 0.00000, 0.00000, 0.00000,1
     49,     50,'1 ',   0.02670,   0.07520,   0.01874,  9900.00,     0.00,     0.00, 0.00000,   0.000, 0.00000, 0.00000, 0.00000, 0.00000,1
     49,     51,'1 ',   0.04860,   0.13700,   0.03420,  9900.00,     0.00,     0.00, 0.00000,   0.000, 0.00000, 0.00000, 0.00000, 0.00000,1
     51,     52,'1 ',   0.02030,   0.05880,   0.01396,  9900.00,     0.00,     0.00, 0.00000,   0.000, 0.00000, 0.00000, 0.00000, 0.00000,1
     52,     53,'1 ',   0.04050,   0.16350,   0.04058,  9900.00,     0.00,     0.00, 0.00000,   0.000, 0.00000, 0.00000, 0.00000, 0.00000,1
     53,     54,'1 ',   0.02630,   0.12200,   0.03100,  9900.00,     0.00,     0.00, 0.00000,   0.000, 0.00000, 0.00000, 0.00000, 0.00000,1
     49,     54,'1 ',   0.07300,   0.28900,   0.07380,  9900.00,     0.00,     0.00, 0.00000,   0.000, 0.00000, 0.00000, 0.00000, 0.00000,1
     49,     54,'2 ',   0.08690,   0.29100,   0.07300,  9900.00,     0.00,     0.00, 0.00000,   0.000, 0.00000, 0.00000, 0.00000, 0.00000,1
     54,     55,'1 ',   0.01690,   0.07070,   0.02020,  9900.00,     0.00,     0.00, 0.00000,   0.000, 0.00000, 0.00000, 0.00000, 0.00000,1
     54,     56,'1 ',   0.00275,   0.00955,   0.00732,  9900.00,     0.00,     0.00, 0.00000,   0.000, 0.00000, 0.00000, 0.00000, 0.00000,1
     55,     56,'1 ',   0.00488,   0.01510,   0.00374,  9900.00,     0.00,     0.00, 0.00000,   0.000, 0.00000, 0.00000, 0.00000, 0.00000,1
     56,     57,'1 ',   0.03430,   0.09660,   0.02420,  9900.00,     0.00,     0.00, 0.00000,   0.000, 0.00000, 0.00000, 0.00000, 0.00000,1
     50,     57,'1 ',   0.04740,   0.13400,   0.03320,  9900.00,     0.00,     0.00, 0.00000,   0.000, 0.00000, 0.00000, 0.00000, 0.00000,1
     56,     58,'1 ',   0.03430,   0.09660,   0.02420,  9900.00,     0.00,     0.00, 0.00000,   0.000, 0.00000, 0.00000, 0.00000, 0.00000,1
     51,     58,'1 ',   0.02550,   0.07190,   0.01788,  9900.00,     0.00,     0.00, 0.00000,   0.000, 0.00000, 0.00000, 0.00000, 0.00000,1
     54,     59,'1 ',   0.05030,   0.22930,   0.05980,  9900.00,     0.00,     0.00, 0.00000,   0.000, 0.00000, 0.00000, 0.00000, 0.00000,1
     56,     59,'1 ',   0.08250,   0.25100,   0.05690,  9900.00,     0.00,     0.00, 0.00000,   0.000, 0.00000, 0.00000, 0.00000, 0.00000,1
     56,     59,'2 ',   0.08030,   0.23900,   0.05360,  9900.00,     0.00,     0.00, 0.00000,   0.000, 0.00000, 0.00000, 0.00000, 0.00000,1
     55,     59,'1 ',   0.04739,   0.21580,   0.05646,  9900.00,     0.00,     0.00, 0.00000,   0.000, 0.00000, 0.00000, 0.00000, 0.00000,1
     59,     60,'1 ',   0.03170,   0.14500,   0.03760,  9900.00,     0.00,     0.00, 0.00000,   0.000, 0.00000, 0.00000, 0.00000, 0.00000,1
     59,     61,'1 ',   0.03280,   0.15000,   0.03880,  9900.00,     0.00,     0.00, 0.00000,   0.000, 0.00000, 0.00000, 0.00000, 0.00000,1
     60,     61,'1 ',   0.00264,   0.01350,   0.01456,  9900.00,     0.00,     0.00, 0.00000,   0.000, 0.00000, 0.00000, 0.00000, 0.00000,1
     60,     62,'1 ',   0.01230,   0.05610,   0.01468,  9900.00,     0.00,     0.00, 0.00000,   0.000, 0.00000, 0.00000, 0.00000, 0.00000,1
     61,     62,'1 ',   0.00824,   0.03760,   0.00980,  9900.00,     0.00,     0.00, 0.00000,   0.000, 0.00000, 0.00000, 0.00000, 0.00000,1
     63,     59,'1 ',   0.00000,   0.03860,   0.00000,  9900.00,     0.00,     0.00, 0.96000,   0.000, 0.00000, 0.00000, 0.00000, 0.00000,1
     63,     64,'1 ',   0.00172,   0.02000,   0.21600,  9900.00,     0.00,     0.00, 0.00000,   0.000, 0.00000, 0.00000, 0.00000, 0.00000,1
     64,     61,'1 ',   0.00000,   0.02680,   0.00000,  9900.00,     0.00,     0.00, 0.98500,   0.000, 0.00000, 0.00000, 0.00000, 0.00000,1
     38,     65,'1 ',   0.00901,   0.09860,   1.04600,  9900.00,     0.00,     0.00, 0.00000,   0.000, 0.00000, 0.00000, 0.00000, 0.00000,1
     64,     65,'1 ',   0.00269,   0.03020,   0.38000,  9900.00,     0.00,     0.00, 0.00000,   0.000, 0.00000, 0.00000, 0.00000, 0.00000,1
     49,     66,'1 ',   0.01800,   0.09190,   0.02480,  9900.00,     0.00,     0.00, 0.00000,   0.000, 0.00000, 0.00000, 0.00000, 0.00000,1
     49,     66,'2 ',   0.01800,   0.09190,   0.02480,  9900.00,     0.00,     0.00, 0.00000,   0.000, 0.00000, 0.00000, 0.00000, 0.00000,1
     62,     66,'1 ',   0.04820,   0.21800,   0.05780,  9900.00,     0.00,     0.00, 0.00000,   0.000, 0.00000, 0.00000, 0.00000, 0.00000,1
     62,     67,'1 ',   0.02580,   0.11700,   0.03100,  9900.00,     0.00,     0.00, 0.00000,   0.000, 0.00000, 0.00000, 0.00000, 0.00000,1
     65,     66,'1 ',   0.00000,   0.03700,   0.00000,  9900.00,     0.00,     0.00, 0.93500,   0.000, 0.00000, 0.00000, 0.00000, 0.00000,1
     66,     67,'1 ',   0.02240,   0.10150,   0.02682,  9900.00,     0.00,     0.00, 0.00000,   0.000, 0.00000, 0.00000, 0.00000, 0.00000,1
     65,     68,'1 ',   0.00138,   0.01600,   0.63800,  9900.00,     0.00,     0.00, 0.00000,   0.000, 0.00000, 0.00000, 0.00000, 0.00000,1
     47,     69,'1 ',   0.08440,   0.27780,   0.07092,  9900.00,     0.00,     0.00, 0.00000,   0.000, 0.00000, 0.00000, 0.00000, 0.00000,1
     49,     69,'1 ',   0.09850,   0.32400,   0.08280,  9900.00,     0.00,     0.00, 0.00000,   0.000, 0.00000, 0.00000, 0.00000, 0.00000,1
     68,     69,'1 ',   0.00000,   0.03700,   0.00000,  9900.00,     0.00,     0.00, 0.93500,   0.000, 0.00000, 0.00000, 0.00000, 0.00000,1
     69,     70,'1 ',   0.03000,   0.12700,   0.12200,  9900.00,     0.00,     0.00, 0.00000,   0.000, 0.00000, 0.00000, 0.00000, 0.00000,1
     24,     70,'1 ',   0.00221,   0.41150,   0.10198,  9900.00,     0.00,     0.00, 0.00000,   0.000, 0.00000, 0.00000, 0.00000, 0.00000,1
     70,     71,'1 ',   0.00882,   0.03550,   0.00878,  9900.00,     0.00,     0.00, 0.00000,   0.000, 0.00000, 0.00000, 0.00000, 0.00000,1
     24,     72,'1 ',   0.04880,   0.19600,   0.04880,  9900.00,     0.00,     0.00, 0.00000,   0.000, 0.00000, 0.00000, 0.00000, 0.00000,1
     71,     72,'1 ',   0.04460,   0.18000,   0.04444,  9900.00,     0.00,     0.00, 0.00000,   0.000, 0.00000, 0.00000, 0.00000, 0.00000,1
     71,     73,'1 ',   0.00866,   0.04540,   0.01178,  9900.00,     0.00,     0.00, 0.00000,   0.000, 0.00000, 0.00000, 0.00000, 0.00000,1
     70,     74,'1 ',   0.04010,   0.13230,   0.03368,  9900.00,     0.00,     0.00, 0.00000,   0.000, 0.00000, 0.00000, 0.00000, 0.00000,1
     70,     75,'1 ',   0.04280,   0.14100,   0.03600,  9900.00,     0.00,     0.00, 0.00000,   0.000, 0.00000, 0.00000, 0.00000, 0.00000,1
     69,     75,'1 ',   0.04050,   0.12200,   0.12400,  9900.00,     0.00,     0.00, 0.00000,   0.000, 0.00000, 0.00000, 0.00000, 0.00000,1
     74,     75,'1 ',   0.01230,   0.04060,   0.01034,  9900.00,     0.00,     0.00, 0.00000,   0.000, 0.00000, 0.00000, 0.00000, 0.00000,1
     76,     77,'1 ',   0.04440,   0.14800,   0.03680,  9900.00,     0.00,     0.00, 0.00000,   0.000, 0.00000, 0.00000, 0.00000, 0.00000,1
     69,     77,'1 ',   0.03090,   0.10100,   0.10380,  9900.00,     0.00,     0.00, 0.00000,   0.000, 0.00000, 0.00000, 0.00000, 0.00000,1
     75,     77,'1 ',   0.06010,   0.19990,   0.04978,  9900.00,     0.00,     0.00, 0.00000,   0.000, 0.00000, 0.00000, 0.00000, 0.00000,1
     77,     78,'1 ',   0.00376,   0.01240,   0.01264,  9900.00,     0.00,     0.00, 0.00000,   0.000, 0.00000, 0.00000, 0.00000, 0.00000,1
     78,     79,'1 ',   0.00546,   0.02440,   0.00648,  9900.00,     0.00,     0.00, 0.00000,   0.000, 0.00000, 0.00000, 0.00000, 0.00000,1
     77,     80,'1 ',   0.01700,   0.04850,   0.04720,  9900.00,     0.00,     0.00, 0.00000,   0.000, 0.00000, 0.00000, 0.00000, 0.00000,1
     77,     80,'2 ',   0.02940,   0.10500,   0.02280,  9900.00,     0.00,     0.00, 0.00000,   0.000, 0.00000, 0.00000, 0.00000, 0.00000,1
     79,     80,'1 ',   0.01560,   0.07040,   0.01870,  9900.00,     0.00,     0.00, 0.00000,   0.000, 0.00000, 0.00000, 0.00000, 0.00000,1
     68,     81,'1 ',   0.00175,   0.02020,   0.80800,  9900.00,     0.00,     0.00, 0.00000,   0.000, 0.00000, 0.00000, 0.00000, 0.00000,1
     81,     80,'1 ',   0.00000,   0.03700,   0.00000,  9900.00,     0.00,     0.00, 0.93500,   0.000, 0.00000, 0.00000, 0.00000, 0.00000,1
     77,     82,'1 ',   0.02980,   0.08530,   0.08174,  9900.00,     0.00,     0.00, 0.00000,   0.000, 0.00000, 0.00000, 0.00000, 0.00000,1
     82,     83,'1 ',   0.01120,   0.03665,   0.03796,  9900.00,     0.00,     0.00, 0.00000,   0.000, 0.00000, 0.00000, 0.00000, 0.00000,1
     83,     84,'1 ',   0.06250,   0.13200,   0.02580,  9900.00,     0.00,     0.00, 0.00000,   0.000, 0.00000, 0.00000, 0.00000, 0.00000,1
     83,     85,'1 ',   0.04300,   0.14800,   0.03480,  9900.00,     0.00,     0.00, 0.00000,   0.000, 0.00000, 0.00000, 0.00000, 0.00000,1
     84,     85,'1 ',   0.03020,   0.06410,   0.01234,  9900.00,     0.00,     0.00, 0.00000,   0.000, 0.00000, 0.00000, 0.00000, 0.00000,1
     85,     86,'1 ',   0.03500,   0.12300,   0.02760,  9900.00,     0.00,     0.00, 0.00000,   0.000, 0.00000, 0.00000, 0.00000, 0.00000,1
     86,     87,'1 ',   0.02828,   0.20740,   0.04450,  9900.00,     0.00,     0.00, 0.00000,   0.000, 0.00000, 0.00000, 0.00000, 0.00000,1
     85,     88,'1 ',   0.02000,   0.10200,   0.02760,  9900.00,     0.00,     0.00, 0.00000,   0.000, 0.00000, 0.00000, 0.00000, 0.00000,1
     85,     89,'1 ',   0.02390,   0.17300,   0.04700,  9900.00,     0.00,     0.00, 0.00000,   0.000, 0.00000, 0.00000, 0.00000, 0.00000,1
     88,     89,'1 ',   0.01390,   0.07120,   0.01934,  9900.00,     0.00,     0.00, 0.00000,   0.000, 0.00000, 0.00000, 0.00000, 0.00000,1
     89,     90,'1 ',   0.05180,   0.18800,   0.05280,  9900.00,     0.00,     0.00, 0.00000,   0.000, 0.00000, 0.00000, 0.00000, 0.00000,1
     89,     90,'2 ',   0.02380,   0.09970,   0.10600,  9900.00,     0.00,     0.00, 0.00000,   0.000, 0.00000, 0.00000, 0.00000, 0.00000,1
     90,     91,'1 ',   0.02540,   0.08360,   0.02140,  9900.00,     0.00,     0.00, 0.00000,   0.000, 0.00000, 0.00000, 0.00000, 0.00000,1
     89,     92,'1 ',   0.00990,   0.05050,   0.05480,  9900.00,     0.00,     0.00, 0.00000,   0.000, 0.00000, 0.00000, 0.00000, 0.00000,1
     89,     92,'2 ',   0.03930,   0.15810,   0.04140,  9900.00,     0.00,     0.00, 0.00000,   0.000, 0.00000, 0.00000, 0.00000, 0.00000,1
     91,     92,'1 ',   0.03870,   0.12720,   0.03268,  9900.00,     0.00,     0.00, 0.00000,   0.000, 0.00000, 0.00000, 0.00000, 0.00000,1
     92,     93,'1 ',   0.02580,   0.08480,   0.02180,  9900.00,     0.00,     0.00, 0.00000,   0.000, 0.00000, 0.00000, 0.00000, 0.00000,1
     92,     94,'1 ',   0.04810,   0.15800,   0.04060,  9900.00,     0.00,     0.00, 0.00000,   0.000, 0.00000, 0.00000, 0.00000, 0.00000,1
     93,     94,'1 ',   0.02230,   0.07320,   0.01876,  9900.00,     0.00,     0.00, 0.00000,   0.000, 0.00000, 0.00000, 0.00000, 0.00000,1
     94,     95,'1 ',   0.01320,   0.04340,   0.01110,  9900.00,     0.00,     0.00, 0.00000,   0.000, 0.00000, 0.00000, 0.00000, 0.00000,1
     80,     96,'1 ',   0.03560,   0.18200,   0.04940,  9900.00,     0.00,     0.00, 0.00000,   0.000, 0.00000, 0.00000, 0.00000, 0.00000,1
     82,     96,'1 ',   0.01620,   0.05300,   0.05440,  9900.00,     0.00,     0.00, 0.00000,   0.000, 0.00000, 0.00000, 0.00000, 0.00000,1
     94,     96,'1 ',   0.02690,   0.08690,   0.02300,  9900.00,     0.00,     0.00, 0.00000,   0.000, 0.00000, 0.00000, 0.00000, 0.00000,1
     80,     97,'1 ',   0.01830,   0.09340,   0.02540,  9900.00,     0.00,     0.00, 0.00000,   0.000, 0.00000, 0.00000, 0.00000, 0.00000,1
     80,     98,'1 ',   0.02380,   0.10800,   0.02860,  9900.00,     0.00,     0.00, 0.00000,   0.000, 0.00000, 0.00000, 0.00000, 0.00000,1
     80,     99,'1 ',   0.04540,   0.20600,   0.05460,  9900.00,     0.00,     0.00, 0.00000,   0.000, 0.00000, 0.00000, 0.00000, 0.00000,1
     92,    100,'1 ',   0.06480,   0.29500,   0.04720,  9900.00,     0.00,     0.00, 0.00000,   0.000, 0.00000, 0.00000, 0.00000, 0.00000,1
     94,    100,'1 ',   0.01780,   0.05800,   0.06040,  9900.00,     0.00,     0.00, 0.00000,   0.000, 0.00000, 0.00000, 0.00000, 0.00000,1
     95,     96,'1 ',   0.01710,   0.05470,   0.01474,  9900.00,     0.00,     0.00, 0.00000,   0.000, 0.00000, 0.00000, 0.00000, 0.00000,1
     96,     97,'1 ',   0.01730,   0.08850,   0.02400,  9900.00,     0.00,     0.00, 0.00000,   0.000, 0.00000, 0.00000, 0.00000, 0.00000,1
     98,    100,'1 ',   0.03970,   0.17900,   0.04760,  9900.00,     0.00,     0.00, 0.00000,   0.000, 0.00000, 0.00000, 0.00000, 0.00000,1
     99,    100,'1 ',   0.01800,   0.08130,   0.02160,  9900.00,     0.00,     0.00, 0.00000,   0.000, 0.00000, 0.00000, 0.00000, 0.00000,1
    100,    101,'1 ',   0.02770,   0.12620,   0.03280,  9900.00,     0.00,     0.00, 0.00000,   0.000, 0.00000, 0.00000, 0.00000, 0.00000,1
     92,    102,'1 ',   0.01230,   0.05590,   0.01464,  9900.00,     0.00,     0.00, 0.00000,   0.000, 0.00000, 0.00000, 0.00000, 0.00000,1
    101,    102,'1 ',   0.02460,   0.11200,   0.02940,  9900.00,     0.00,     0.00, 0.00000,   0.000, 0.00000, 0.00000, 0.00000, 0.00000,1
    100,    103,'1 ',   0.01600,   0.05250,   0.05360,  9900.00,     0.00,     0.00, 0.00000,   0.000, 0.00000, 0.00000, 0.00000, 0.00000,1
    100,    104,'1 ',   0.04510,   0.20400,   0.05410,  9900.00,     0.00,     0.00, 0.00000,   0.000, 0.00000, 0.00000, 0.00000, 0.00000,1
    103,    104,'1 ',   0.04660,   0.15840,   0.04070,  9900.00,     0.00,     0.00, 0.00000,   0.000, 0.00000, 0.00000, 0.00000, 0.00000,1
    103,    105,'1 ',   0.05350,   0.16250,   0.04080,  9900.00,     0.00,     0.00, 0.00000,   0.000, 0.00000, 0.00000, 0.00000, 0.00000,1
    100,    106,'1 ',   0.06050,   0.22900,   0.06200,  9900.00,     0.00,     0.00, 0.00000,   0.000, 0.00000, 0.00000, 0.00000, 0.00000,1
    104,    105,'1 ',   0.00994,   0.03780,   0.00986,  9900.00,     0.00,     0.00, 0.00000,   0.000, 0.00000, 0.00000, 0.00000, 0.00000,1
    105,    106,'1 ',   0.01400,   0.05470,   0.01434,  9900.00,     0.00,     0.00, 0.00000,   0.000, 0.00000, 0.00000, 0.00000, 0.00000,1
    105,    107,'1 ',   0.05300,   0.18300,   0.04720,  9900.00,     0.00,     0.00, 0.00000,   0.000, 0.00000, 0.00000, 0.00000, 0.00000,1
    105,    108,'1 ',   0.02610,   0.07030,   0.01844,  9900.00,     0.00,     0.00, 0.00000,   0.000, 0.00000, 0.00000, 0.00000, 0.00000,1
    106,    107,'1 ',   0.05300,   0.18300,   0.04720,  9900.00,     0.00,     0.00, 0.00000,   0.000, 0.00000, 0.00000, 0.00000, 0.00000,1
    108,    109,'1 ',   0.01050,   0.02880,   0.00760,  9900.00,     0.00,     0.00, 0.00000,   0.000, 0.00000, 0.00000, 0.00000, 0.00000,1
    103,    110,'1 ',   0.03906,   0.18130,   0.04610,  9900.00,     0.00,     0.00, 0.00000,   0.000, 0.00000, 0.00000, 0.00000, 0.00000,1
    109,    110,'1 ',   0.02780,   0.07620,   0.02020,  9900.00,     0.00,     0.00, 0.00000,   0.000, 0.00000, 0.00000, 0.00000, 0.00000,1
    110,    111,'1 ',   0.02200,   0.07550,   0.02000,  9900.00,     0.00,     0.00, 0.00000,   0.000, 0.00000, 0.00000, 0.00000, 0.00000,1
    110,    112,'1 ',   0.02470,   0.06400,   0.06200,  9900.00,     0.00,     0.00, 0.00000,   0.000, 0.00000, 0.00000, 0.00000, 0.00000,1
     17,    113,'1 ',   0.00913,   0.03010,   0.00768,  9900.00,     0.00,     0.00, 0.00000,   0.000, 0.00000, 0.00000, 0.00000, 0.00000,1
     32,    113,'1 ',   0.06150,   0.20300,   0.05180,  9900.00,     0.00,     0.00, 0.00000,   0.000, 0.00000, 0.00000, 0.00000, 0.00000,1
     32,    114,'1 ',   0.01350,   0.06120,   0.01628,  9900.00,     0.00,     0.00, 0.00000,   0.000, 0.00000, 0.00000, 0.00000, 0.00000,1
     27,    115,'1 ',   0.01640,   0.07410,   0.01972,  9900.00,     0.00,     0.00, 0.00000,   0.000, 0.00000, 0.00000, 0.00000, 0.00000,1
    114,    115,'1 ',   0.00230,   0.01040,   0.00276,  9900.00,     0.00,     0.00, 0.00000,   0.000, 0.00000, 0.00000, 0.00000, 0.00000,1
     68,    116,'1 ',   0.00034,   0.00405,   0.16400,  9900.00,     0.00,     0.00, 0.00000,   0.000, 0.00000, 0.00000, 0.00000, 0.00000,1
     12,    117,'1 ',   0.03290,   0.14000,   0.03580,  9900.00,     0.00,     0.00, 0.00000,   0.000, 0.00000, 0.00000, 0.00000, 0.00000,1
     75,    118,'1 ',   0.01450,   0.04810,   0.01198,  9900.00,     0.00,     0.00, 0.00000,   0.000, 0.00000, 0.00000, 0.00000, 0.00000,1
     76,    118,'1 ',   0.01640,   0.05440,   0.01356,  9900.00,     0.00,     0.00, 0.00000,   0.000, 0.00000, 0.00000, 0.00000, 0.00000,1
0 / END OF BRANCH DATA, BEGIN TRANSFORMER ADJUSTMENT DATA
0 / END OF TRANSFORMER ADJUSTMENT DATA, BEGIN AREA DATA
   1,     69,     0.0,  3.000,'AREA_1      '
0 / END OF AREA DATA, BEGIN TWO-TERMINAL DC DATA
0 / END OF TWO-TERMINAL DC DATA, BEGIN SWITCHED SHUNT DATA
0 / END OF SWITCHED SHUNT DATA, BEGIN IMPEDANCE CORRECTION DATA
0 / END OF IMPEDANCE CORRECTION DATA, BEGIN MULTI-TERMINAL DC DATA
0 / END OF MULTI-TERMINAL DC DATA, BEGIN MULTI-SECTION LINE DATA
0 / END OF MULTI-SECTION LINE DATA, BEGIN ZONE DATA
    1,'ZONE_1      '
0 / END OF ZONE DATA, BEGIN INTER-AREA TRANSFER DATA
0 / END OF INTER-AREA TRANSFER DATA, BEGIN OWNER DATA
    1,'OWNER_1     '
0 / END OF OWNER DATA, BEGIN FACTS DEVICE DATA
0 / END OF FACTS DEVICE DATA
