cases/ieee118/reference.csv
bus_id,vm_pu,va_deg,matpower_vm_pu,matpower_va_deg
1,0.955000,-19.0273,0.955000,-19.3300
2,0.971393,-18.4875,0.971000,-18.7800
3,0.967692,-18.1438,0.968000,-18.4400
4,0.998000,-14.4259,0.998000,-14.7200
5,1.001985,-13.9808,1.002000,-14.2700
6,0.990000,-16.7081,0.990000,-17.0000
7,0.989328,-17.1527,0.989000,-17.4400
8,1.015000,-8.9594,1.015000,-9.2300
9,1.042918,-1.7053,1.043000,-1.9800
10,1.050000,5.8756,1.050000,5.6100
11,0.985089,-16.9942,0.985000,-17.2800
12,0.990000,-17.5111,0.990000,-17.8000
13,0.968302,-18.3703,0.968000,-18.6500
14,0.983591,-18.2285,0.984000,-18.5000
15,0.970000,-18.5259,0.970000,-18.7700
16,0.983897,-17.8127,0.984000,-18.0900
17,0.995089,-16.0048,0.995000,-16.2600
18,0.973000,-18.2192,0.973000,-18.4700
19,0.962000,-18.6854,0.963000,-18.9500
20,0.956934,-17.8090,0.958000,-18.0700
21,0.957725,-16.2220,0.959000,-16.4800
22,0.969019,-13.6684,0.970000,-13.9200
23,0.999469,-8.7513,1.000000,-9.0000
24,0.992000,-8.8861,0.992000,-9.1100
25,1.050000,-1.8202,1.050000,-2.0700
26,1.015000,-0.0398,1.015000,-0.2900
27,0.968000,-14.3956,0.968000,-14.6500
28,0.961568,-16.1211,0.962000,-16.3800
29,0.963216,-17.1146,0.963000,-17.3700
30,0.985333,-10.9662,0.968000,-11.2100
31,0.967000,-16.9981,0.967000,-17.2500
32,0.963000,-14.9394,0.964000,-15.2000
33,0.970934,-19.1462,0.972000,-19.3700
34,0.984000,-18.4886,0.986000,-18.7000
35,0.980452,-18.9449,0.981000,-19.1300
36,0.980000,-18.9445,0.980000,-19.1300
37,0.990661,-18.0333,0.992000,-18.2300
38,0.961286,-12.8924,0.962000,-13.0900
39,0.969961,-21.4234,0.970000,-21.5900
40,0.970000,-22.5045,0.970000,-22.6500
41,0.966832,-22.9484,0.967000,-23.0800
42,0.985000,-21.3471,0.985000,-21.4700
43,0.977121,-18.5396,0.978000,-18.7200
44,0.984436,-16.0567,0.985000,-16.1800
45,0.986383,-14.2274,0.987000,-14.3300
46,1.005000,-11.4243,1.005000,-11.5100
47,1.017052,-9.2009,1.017000,-9.2700
48,1.020633,-9.9815,1.021000,-10.0700
49,1.025000,-8.9784,1.025000,-9.0600
50,1.001083,-11.0171,1.001000,-11.1000
51,0.966877,-13.6358,0.967000,-13.7200
52,0.956818,-14.5891,0.957000,-14.6800
53,0.945983,-15.5639,0.946000,-15.6500
54,0.955000,-14.6519,0.955000,-14.7400
55,0.952000,-14.9418,0.952000,-15.0300
56,0.954000,-14.7551,0.954000,-14.8400
57,0.970583,-13.5508,0.971000,-13.6400
58,0.959039,-14.4075,0.959000,-14.4900
59,0.985000,-10.5515,0.985000,-10.6300
60,0.993156,-6.7699,0.993000,-6.8500
61,0.995000,-5.8785,0.995000,-5.9600
62,0.998000,-6.4952,0.998000,-6.5700
63,0.968737,-7.1726,0.969000,-7.2500
64,0.983739,-5.4066,0.984000,-5.4800
65,1.005000,-2.2809,1.005000,-2.3500
66,1.050000,-2.4413,1.050000,-2.5200
67,1.019682,-5.0810,1.020000,-5.1600
68,1.003249,-2.4022,1.003000,-2.4500
69,1.035000,0.0000,1.035000,0.0000
70,0.984000,-7.3821,0.984000,-7.4200
71,0.986845,-7.7931,0.987000,-7.8500
72,0.980000,-8.8914,0.980000,-9.0200
73,0.991000,-8.0046,0.991000,-8.0600
74,0.958000,-8.3314,0.958000,-8.3600
75,0.967332,-7.0698,0.967000,-7.0900
76,0.943000,-8.2012,0.943000,-8.2300
77,1.006000,-3.2494,1.006000,-3.2800
78,1.003424,-3.5534,1.003000,-3.5800
79,1.009223,-3.2546,1.009000,-3.2800
80,1.040000,-1.0099,1.040000,-1.0400
81,0.996807,-1.8551,0.997000,-1.9000
82,0.988545,-2.7283,0.989000,-2.7600
83,0.984377,-1.5361,0.985000,-1.5800
84,0.979704,1.0003,0.980000,0.9500
85,0.985000,2.5556,0.985000,2.5100
86,0.986691,1.1862,0.987000,1.1400
87,1.015000,1.4454,1.015000,1.4000
88,0.987453,5.6904,0.987000,5.6400
89,1.005000,9.7483,1.005000,9.6900
90,0.985000,3.3384,0.985000,3.2900
91,0.980000,3.3506,0.980000,3.3100
92,0.990000,3.8808,0.993000,3.8000
93,0.985433,0.8491,0.987000,0.7900
94,0.989830,-1.3178,0.991000,-1.3600
95,0.980332,-2.2904,0.981000,-2.3300
96,0.992283,-2.4574,0.993000,-2.4900
97,1.011166,-2.0842,1.011000,-2.1200
98,1.023509,-2.5667,1.024000,-2.6000
99,1.010000,-2.9332,1.010000,-2.9600
100,1.017000,-1.9412,1.017000,-1.9700
101,0.991420,-0.3531,0.993000,-0.3900
102,0.989131,2.3650,0.991000,2.3000
103,1.010000,-5.6822,1.001000,-5.5600
104,0.971000,-8.2522,0.971000,-8.3100
105,0.965000,-9.3564,0.965000,-9.4300
106,0.961146,-9.6166,0.962000,-9.6800
107,0.952000,-12.4173,0.952000,-12.4700
108,0.966212,-10.5565,0.967000,-10.6200
109,0.967026,-11.0091,0.967000,-11.0700
110,0.973000,-11.8560,0.973000,-11.9100
111,0.980000,-10.2109,0.980000,-10.2600
112,0.975000,-14.9552,0.975000,-15.0100
113,0.993000,-16.0074,0.993000,-16.2600
114,0.960093,-15.2736,0.960000,-15.5400
115,0.960023,-15.2819,0.960000,-15.5400
116,1.005000,-2.8372,1.005000,-2.8800
117,0.973824,-19.0521,0.974000,-19.3300
118,0.949438,-8.0581,0.949000,-8.0800
